output/compact_npcc_ny/compact_full_replay_branch.csv
branch_row,device_key,from_bus,to_bus,online,rate_a_mva,from_mva,to_mva,from_overload_mva,to_overload_mva,angle_deg,angle_min_deg,angle_max_deg,angle_below_min_deg,angle_above_max_deg,violated,invalid_limit_bounds,stored_terminal_flow_error_mva,stored_terminal_flow_inconsistent
1,NPCC_S7:BRANCH_ROW:1,1,2,1,2500,535.190599374028,533.226168413115,0,0,1.3428722934613,-360,360,0,0,0,0,1.3807949762311e-12,0
2,NPCC_S7:BRANCH_ROW:2,1,4,1,2500,1279.17205780149,1263.81292625448,0,0,3.22002339977691,-360,360,0,0,0,0,2.29143147075165e-13,0
3,NPCC_S7:BRANCH_ROW:3,2,33,1,2500,488.419653601008,486.522835336966,0,0,2.40477775489801,-360,360,0,0,0,0,7.45050414240261e-13,0
4,NPCC_S7:BRANCH_ROW:4,4,5,1,2500,1289.85798430001,1272.37676337461,0,0,7.99114774014029,-360,360,0,0,0,0,2.27373675443232e-13,0
5,NPCC_S7:BRANCH_ROW:5,5,6,1,2500,992.943517188643,1011.47971213939,0,0,13.2992253666451,-360,360,0,0,0,0,1.13686837721616e-13,0
6,NPCC_S7:BRANCH_ROW:6,5,31,1,2500,282.413794955291,281.827960959456,0,0,2.2737044797036,-360,360,0,0,0,0,5.69543329542959e-14,0
7,NPCC_S7:BRANCH_ROW:7,6,7,1,2500,722.458829932672,739.55466613012,0,0,3.30745599749711,-360,360,0,0,0,0,1.50070932050358e-12,0
8,NPCC_S7:BRANCH_ROW:8,7,8,1,2500,161.097102101144,167.136506766412,0,0,-0.721163042244934,-360,360,0,0,0,0,1.80225911918657e-12,0
9,NPCC_S7:BRANCH_ROW:9,7,10,1,2500,331.466904467653,319.624262445362,0,0,2.1923813911527,-360,360,0,0,0,0,8.53124846560356e-13,0
10,NPCC_S7:BRANCH_ROW:10,7,12,1,2500,150.145091242621,131.431542933497,0,0,-0.583108955622137,-360,360,0,0,0,0,1.61860325157175e-12,0
11,NPCC_S7:BRANCH_ROW:11,7,15,1,2500,273.124927264109,270.712635667781,0,0,0.647947240979576,-360,360,0,0,0,0,5.8499721763168e-12,0
12,NPCC_S7:BRANCH_ROW:12,8,9,1,2500,364.426209608363,366.383119883874,0,0,-1.54644658747507,-360,360,0,0,0,0,2.8421709430404e-14,0
13,NPCC_S7:BRANCH_ROW:13,8,18,1,2500,198.103728136449,187.427450385044,0,0,1.75629835656374,-360,360,0,0,0,0,0,0
14,NPCC_S7:BRANCH_ROW:14,9,30,1,2500,536.292425778335,534.576311726593,0,0,-4.08225377086361,-360,360,0,0,0,0,1.13686837721616e-13,0
15,NPCC_S7:BRANCH_ROW:15,12,13,1,2500,477.286225350084,478.939557248823,0,0,-3.0205115804557,-360,360,0,0,0,0,3.69482222595252e-13,0
16,NPCC_S7:BRANCH_ROW:16,13,14,1,2500,169.478701141317,171.939899218164,0,0,0.811035176309714,-360,360,0,0,0,0,7.29898951345718e-13,0
17,NPCC_S7:BRANCH_ROW:17,14,15,1,2500,207.528919763,216.979384946162,0,0,3.4405326007477,-360,360,0,0,0,0,7.75761694965023e-13,0
18,NPCC_S7:BRANCH_ROW:18,16,17,1,2500,690.645075096051,685.347351677935,0,0,11.8376842487204,-360,360,0,0,0,0,1.14571573537582e-13,0
19,NPCC_S7:BRANCH_ROW:19,16,29,1,2500,610.146103373394,587.262592372178,0,0,2.98061696207374,-360,360,0,0,0,0,1.4210854715202e-14,0
20,NPCC_S7:BRANCH_ROW:20,17,18,1,2500,207.810824107275,218.764866525848,0,0,1.26160803902829,-360,360,0,0,0,0,2.8421709430404e-14,0
21,NPCC_S7:BRANCH_ROW:21,17,19,1,2500,228.379104089828,200.32099503704,0,0,4.9271787573163,-360,360,0,0,0,0,1.4210854715202e-14,0
22,NPCC_S7:BRANCH_ROW:22,17,20,1,2500,186.940733467267,136.678119800903,0,0,4.51077054763546,-360,360,0,0,0,0,7.105427357601e-15,0
23,NPCC_S7:BRANCH_ROW:23,19,20,1,2500,98.8821622440313,79.0297219447623,0,0,-0.416408209680842,-360,360,0,0,0,0,1.4210854715202e-14,0
24,NPCC_S7:BRANCH_ROW:24,29,30,1,2500,334.013996409492,335.043447050616,0,0,2.73367661077253,-360,360,0,0,0,0,5.6843418860808e-14,0
25,NPCC_S7:BRANCH_ROW:25,29,37,1,1206.77007,298.432485766859,278.900051581017,0,0,6.11769061122494,-360,360,0,0,0,0,4.27508239127159e-13,0
26,NPCC_S7:BRANCH_ROW:26,30,31,1,2500,639.903843388627,623.542988271938,0,0,-7.98311348385501,-360,360,0,0,0,0,1.17185710042169e-13,0
27,NPCC_S7:BRANCH_ROW:27,31,32,1,2500,942.874586257293,957.731299115937,0,0,-7.53817632142731,-360,360,0,0,0,0,1.14439169963056e-13,0
28,NPCC_S7:BRANCH_ROW:28,32,33,1,2500,1397.12502525145,1405.1068785145,0,0,-2.19904924983418,-360,360,0,0,0,0,1.36786397329537e-12,0
29,NPCC_S7:BRANCH_ROW:29,32,35,1,2500,445.413704124875,444.586663336508,0,0,3.05835863046506,-360,360,0,0,0,0,2.28370690251555e-13,0
30,NPCC_S7:BRANCH_ROW:30,33,34,1,2500,723.262470556533,718.533220881601,0,0,4.03312608574923,-360,360,0,0,0,0,1.37134748001699e-12,0
31,NPCC_S7:BRANCH_ROW:31,34,35,1,2500,435.105158511641,434.645253919637,0,0,1.22428179455001,-360,360,0,0,0,0,2.78013862908562e-12,0
32,NPCC_S7:BRANCH_ROW:32,35,73,1,1206.77007,374.526932356792,381.295918804224,0,0,4.78967474268112,-360,360,0,0,0,0,5.6843418860808e-14,0
33,NPCC_S7:BRANCH_ROW:33,37,38,1,2500,195.954437515148,191.798303723158,0,0,-1.56975553899732,-360,360,0,0,0,0,1.51303898453604e-12,0
34,NPCC_S7:BRANCH_ROW:34,37,39,1,3388,1380.22270635422,1395.5675152824,0,0,-5.32368862014052,-360,360,0,0,0,0,3.15590577659767e-12,0
35,NPCC_S7:BRANCH_ROW:35,37,40,1,2500,460.543454051672,467.561559530673,0,0,7.48753005387222,-360,360,0,0,0,0,8.17957836213632e-13,0
36,NPCC_S7:BRANCH_ROW:36,37,43,1,3745.98196383403,1464.87141917876,1459.08969045393,0,0,14.5080103593991,-360,360,0,0,0,0,1.70530256582424e-12,0
37,NPCC_S7:BRANCH_ROW:37,38,69,1,1216,440.171832103321,432.565061671272,0,0,11.1081881869533,-360,360,0,0,0,0,5.72857867687912e-14,0
38,NPCC_S7:BRANCH_ROW:38,39,73,1,2500,619.405943316006,627.363620341244,0,0,-5.73358181244803,-360,360,0,0,0,0,1.13811669277491e-13,0
39,NPCC_S7:BRANCH_ROW:39,39,73,1,2500,619.405943316006,627.363620341244,0,0,-5.73358181244803,-360,360,0,0,0,0,1.13811669277491e-13,0
40,NPCC_S7:BRANCH_ROW:40,40,44,1,1328.76341358641,297.998026473833,291.434012580895,0,0,8.0812441263632,-360,360,0,0,0,0,5.69543329542959e-14,0
41,NPCC_S7:BRANCH_ROW:41,41,42,1,2500,657.159609515484,670.763006278887,0,0,-2.57926655742012,-360,360,0,0,0,0,7.50354660251792e-13,0
42,NPCC_S7:BRANCH_ROW:42,41,45,1,314.254622579561,88.3458035857262,83.3971837245695,0,0,10.2933331915935,-360,360,0,0,0,0,3.5527136788005e-15,0
43,NPCC_S7:BRANCH_ROW:43,43,44,1,2500,195.705896081047,196.90071203343,0,0,1.06076382083631,-360,360,0,0,0,0,7.65838505626976e-13,0
44,NPCC_S7:BRANCH_ROW:44,43,50,1,3463.47124449306,737.778505791256,741.431040731522,0,0,10.1895828127036,-360,360,0,0,0,0,4.0990372275064e-13,0
45,NPCC_S7:BRANCH_ROW:45,43,50,1,3463.47124449306,737.778505791256,741.431040731522,0,0,10.1895828127036,-360,360,0,0,0,0,4.0990372275064e-13,0
46,NPCC_S7:BRANCH_ROW:46,44,45,1,2500,332.841476590513,333.095377707668,0,0,3.50588278700228,-360,360,0,0,0,0,6.35528743231302e-14,0
47,NPCC_S7:BRANCH_ROW:47,44,48,1,6896.14528055676,220.079759630177,196.903150643016,0,0,10.6778714252824,-360,360,0,0,0,0,3.43420821695718e-13,0
48,NPCC_S7:BRANCH_ROW:48,45,46,1,2040.85471944324,41.8227721420336,32.2581581566728,0,0,6.54858016590093,-360,360,0,0,0,0,1.06581410364015e-14,0
49,NPCC_S7:BRANCH_ROW:49,45,51,1,489.56239109923,93.9100813907522,90.3876030790592,0,0,9.57109124042722,-360,360,0,0,0,0,1.46482137552712e-14,0
50,NPCC_S7:BRANCH_ROW:50,45,71,1,166.495119914644,10.75148061183,6.98747374251498,0,0,-1.31114529033546,-360,360,0,0,0,0,8.88178419700125e-16,0
51,NPCC_S7:BRANCH_ROW:51,46,47,1,2500,56.7542552697284,59.4401096232113,0,0,-3.76553136515739,-360,360,0,0,0,0,7.105427357601e-15,0
52,NPCC_S7:BRANCH_ROW:52,46,49,1,2500,54.7560777476061,50.3311233340153,0,0,15.8225407240793,-360,360,0,0,0,0,7.32410687763558e-15,0
53,NPCC_S7:BRANCH_ROW:53,47,48,1,2500,280.803230719901,280.803288336835,0,0,4.38893983753659,-360,360,0,0,0,0,8.20409593771716e-13,0
54,NPCC_S7:BRANCH_ROW:54,50,51,1,2500,406.181778368224,394.251316634488,0,0,3.94815503556222,-360,360,0,0,0,0,8.03887338846093e-14,0
55,NPCC_S7:BRANCH_ROW:55,50,52,1,2858.06690137886,2228.3877598668,2121.27465190277,0,0,25.6851000732612,-360,360,0,0,0,0,1.24667350288867e-12,0
56,NPCC_S7:BRANCH_ROW:56,51,53,1,290.964700741948,290.964703564721,290.96468922007,2.82277284213706e-06,0,35.8523087371595,-360,360,0,0,0,0,3.5527136788005e-14,0
57,NPCC_S7:BRANCH_ROW:57,51,72,1,2500,573.184268729219,586.872629200302,0,0,-7.1357149560253,-360,360,0,0,0,0,8.66703779879143e-13,0
58,NPCC_S7:BRANCH_ROW:58,52,53,1,2500,684.197141714606,722.542633530742,0,0,14.1153636994605,-360,360,0,0,0,0,6.12222357532858e-13,0
59,NPCC_S7:BRANCH_ROW:59,53,55,1,997.983883346124,167.92030955137,156.961795658623,0,0,8.68632462230731,-360,360,0,0,0,0,2.8421709430404e-14,0
60,NPCC_S7:BRANCH_ROW:60,53,65,1,785.968397879188,37.7456950239662,36.2698279951343,0,0,-1.10034792927907,-360,360,0,0,0,0,2.93400166021319e-13,0
61,NPCC_S7:BRANCH_ROW:61,54,56,1,789.941803,317.01099914208,308.583382371768,0,0,1.51176620891464,-360,360,0,0,0,0,1.4210854715202e-14,0
62,NPCC_S7:BRANCH_ROW:62,54,62,1,789.941803,99.5183828197209,106.776024081004,0,0,1.13280364055636,-360,360,0,0,0,0,0,0
63,NPCC_S7:BRANCH_ROW:63,54,102,1,2500,245.060846880478,243.772407753518,0,0,2.86324381336328,-360,360,0,0,0,0,5.6843418860808e-14,0
64,NPCC_S7:BRANCH_ROW:64,54,103,1,2500,281.97493220726,280.107468323197,0,0,3.29880712851634,-360,360,0,0,0,0,5.72857867687912e-14,0
65,NPCC_S7:BRANCH_ROW:65,55,57,1,789.941803,175.544206954096,173.61585506594,0,0,3.34117878600986,-360,360,0,0,0,0,2.84355838317334e-14,0
66,NPCC_S7:BRANCH_ROW:66,55,59,1,789.941803,109.903851624755,106.556542068714,0,0,3.32317641405602,-360,360,0,0,0,0,1.4210854715202e-14,0
67,NPCC_S7:BRANCH_ROW:67,56,58,1,2500,512.230515772243,502.522562773763,0,0,3.61501934256724,-360,360,0,0,0,0,1.13686837721616e-13,0
68,NPCC_S7:BRANCH_ROW:68,57,59,1,2500,68.165188345085,68.640754016798,0,0,-0.0180023719538411,-360,360,0,0,0,0,0,0
69,NPCC_S7:BRANCH_ROW:69,58,60,1,2500,182.055906105248,161.22702031135,0,0,1.44827404716303,-360,360,0,0,0,0,2.8421709430404e-14,0
70,NPCC_S7:BRANCH_ROW:70,58,62,1,2500,429.041449461717,424.203831373651,0,0,-3.99398191092551,-360,360,0,0,0,0,6.35528743231302e-14,0
71,NPCC_S7:BRANCH_ROW:71,59,61,1,2500,26.9257221869505,22.7298123580932,0,0,1.95134666067447,-360,360,0,0,0,0,2.03375404074701e-13,0
72,NPCC_S7:BRANCH_ROW:72,60,140,1,773.970762,8.45386401962967,1.1764592044318e-12,0,0,0.00783082291535209,-360,360,0,0,0,0,1.73472347597681e-18,0
73,NPCC_S7:BRANCH_ROW:73,62,63,1,620,422.342060709817,397.740271063676,0,0,-18.8220230554473,-360,360,0,0,0,0,6.35528743231302e-14,0
74,NPCC_S7:BRANCH_ROW:74,63,64,1,2500,146.390460822213,150.956612313312,0,0,3.70397836624092,-360,360,0,0,0,0,2.92964275105423e-14,0
75,NPCC_S7:BRANCH_ROW:75,63,67,1,2500,542.383602524376,574.952879563267,0,0,-30.8769277281268,-360,360,0,0,0,0,1.4210854715202e-13,0
76,NPCC_S7:BRANCH_ROW:76,64,65,1,2500,228.695403086277,246.942741344142,0,0,9.54809014048526,-360,360,0,0,0,0,2.54211497292521e-13,0
77,NPCC_S7:BRANCH_ROW:77,64,68,1,2500,197.595794917351,221.67435855294,0,0,-27.4159604085751,-360,360,0,0,0,0,2.22044604925031e-14,0
78,NPCC_S7:BRANCH_ROW:78,66,67,1,2500,778.678658517092,771.287708487972,0,0,9.76337621810244,-360,360,0,0,0,0,4.76434667411928e-13,0
79,NPCC_S7:BRANCH_ROW:79,66,69,1,2500,73.1195427909386,44.9605699059379,0,0,0.0330960853660791,-360,360,0,0,0,0,3.74308198077346e-13,0
80,NPCC_S7:BRANCH_ROW:80,66,134,1,773.970762,770.217208052118,773.970760514561,0,0,-4.73011023511095,-360,360,0,0,0,0,7.38964445190504e-13,0
81,NPCC_S7:BRANCH_ROW:81,67,68,1,2500,322.024330413174,347.311312112542,0,0,7.16494568579261,-360,360,0,0,0,0,2.41166201653828e-13,0
82,NPCC_S7:BRANCH_ROW:82,67,70,1,2500,68.3861403007145,59.161501097534,0,0,-0.769080300538263,-360,360,0,0,0,0,1.92142370039363e-13,0
83,NPCC_S7:BRANCH_ROW:83,67,138,1,2500,72.4864408858721,77.8009333607633,0,0,-1.46569768166579,-360,360,0,0,0,0,7.04333886946316e-13,0
84,NPCC_S7:BRANCH_ROW:84,68,71,1,2500,74.1251467395826,77.7547583194662,0,0,-8.67014678958275,-360,360,0,0,0,0,2.1316282072803e-14,0
85,NPCC_S7:BRANCH_ROW:85,69,71,1,2500,435.234194632754,449.430323052982,0,0,8.22507902894622,-360,360,0,0,0,0,6.35528743231302e-14,0
86,NPCC_S7:BRANCH_ROW:86,70,71,1,2500,59.1615010975351,60.4947725729059,0,0,-0.736120803251875,-360,360,0,0,0,0,7.94410929039127e-15,0
87,NPCC_S7:BRANCH_ROW:87,71,72,1,2500,547.09726713349,534.842444948331,0,0,3.74652157473739,-360,360,0,0,0,0,1.95284239752049e-12,0
88,NPCC_S7:BRANCH_ROW:88,73,74,0,1599.84337349398,0,0,0,0,-1.67901591184456,-360,360,0,0,0,0,0,0
89,NPCC_S7:BRANCH_ROW:89,73,74,0,1599.84337349398,0,0,0,0,-1.67901591184456,-360,360,0,0,0,0,0,0
90,NPCC_S7:BRANCH_ROW:90,74,77,1,2500,276.499134096554,274.192903954997,0,0,0.5506297312625,-360,360,0,0,0,0,0,0
91,NPCC_S7:BRANCH_ROW:91,74,78,1,2889.50495049505,435.335451377912,431.549946212842,0,0,-0.90573512605657,-360,360,0,0,0,0,7.105427357601e-15,0
92,NPCC_S7:BRANCH_ROW:92,74,78,1,2889.50495049505,435.335451377912,431.549946212842,0,0,-0.90573512605657,-360,360,0,0,0,0,7.105427357601e-15,0
93,NPCC_S7:BRANCH_ROW:93,75,124,1,2500,716.513441649952,710.709854037093,0,0,5.92132688762344,-360,360,0,0,0,0,3.54293024541505e-13,0
94,NPCC_S7:BRANCH_ROW:94,76,77,0,4611.31325301205,0,0,0,0,-0.817672270947842,-360,360,0,0,0,0,0,0
95,NPCC_S7:BRANCH_ROW:95,78,79,1,908.848753535103,597.817191127256,599.0450914568,0,0,-4.34472497639974,-360,360,0,0,0,0,2.27401429324989e-13,0
96,NPCC_S7:BRANCH_ROW:96,78,80,1,984.654731457801,155.790208633194,168.12448241407,0,0,-4.54670072712659,-360,360,0,0,0,0,7.105427357601e-15,0
97,NPCC_S7:BRANCH_ROW:97,78,81,1,503.818330764024,87.6792715195423,87.0401549020689,0,0,1.07627745066699,-360,360,0,0,0,0,2.86428933843956e-14,0
98,NPCC_S7:BRANCH_ROW:98,78,82,1,451.473569126203,280.722515932862,281.299111711372,0,0,-4.10652158996357,-360,360,0,0,0,0,5.72857867687912e-14,0
99,NPCC_S7:BRANCH_ROW:99,81,125,1,2500,1166.0654079876,1164.08987951451,0,0,0.614303197692357,-360,360,0,0,0,0,1.4210854715202e-14,0
100,NPCC_S7:BRANCH_ROW:100,83,112,1,176.592906,42.4819648338156,42.8882518327441,0,0,-4.29844468811314,-360,360,0,0,0,0,1.17242915664343e-14,0
101,NPCC_S7:BRANCH_ROW:101,83,113,1,176.592906,89.5098735652362,88.9259459006951,0,0,1.16152763927472,-360,360,0,0,0,0,6.43198182714213e-13,0
102,NPCC_S7:BRANCH_ROW:102,84,116,1,2500,131.455473375762,138.268278588251,0,0,-8.1311500171454,-360,360,0,0,0,0,1.70530256582424e-13,0
103,NPCC_S7:BRANCH_ROW:103,85,88,1,2500,196.247396883575,194.762254710067,0,0,2.59582164657223,-360,360,0,0,0,0,7.105427357601e-15,0
104,NPCC_S7:BRANCH_ROW:104,85,88,1,2500,196.247396883575,194.762254710067,0,0,2.59582164657223,-360,360,0,0,0,0,7.105427357601e-15,0
105,NPCC_S7:BRANCH_ROW:105,85,105,1,2500,134.886687650602,134.785324321318,0,0,9.25728690768366,-360,360,0,0,0,0,1.58882185807825e-14,0
106,NPCC_S7:BRANCH_ROW:106,85,105,1,2500,134.886687650602,134.785324321318,0,0,9.25728690768366,-360,360,0,0,0,0,1.58882185807825e-14,0
107,NPCC_S7:BRANCH_ROW:107,85,112,1,2500,133.235476850097,132.609614886799,0,0,5.1975985061225,-360,360,0,0,0,0,3.19112012517815e-13,0
108,NPCC_S7:BRANCH_ROW:108,85,112,1,2500,133.235476850097,132.609614886799,0,0,5.1975985061225,-360,360,0,0,0,0,3.19112012517815e-13,0
109,NPCC_S7:BRANCH_ROW:109,87,115,1,176.592906,176.552067887298,176.592893305411,0,0,-0.210906569500253,-360,360,0,0,0,0,1.31976147794509e-11,0
110,NPCC_S7:BRANCH_ROW:110,88,89,1,2500,119.161833615529,116.583277831474,0,0,1.09831661382378,-360,360,0,0,0,0,9.02473192883657e-13,0
111,NPCC_S7:BRANCH_ROW:111,88,105,1,2500,111.321066912875,109.29375359133,0,0,6.66146526111143,-360,360,0,0,0,0,0,0
112,NPCC_S7:BRANCH_ROW:112,88,105,1,2500,111.321066912875,109.29375359133,0,0,6.66146526111143,-360,360,0,0,0,0,0,0
113,NPCC_S7:BRANCH_ROW:113,89,90,1,2500,76.2943510369595,76.1553349074207,0,0,-0.252037477908232,-360,360,0,0,0,0,3.84264375732404e-12,0
114,NPCC_S7:BRANCH_ROW:114,89,105,1,2500,28.4178402504276,30.3719515141864,0,0,5.56314864728765,-360,360,0,0,0,0,7.68569480157451e-14,0
115,NPCC_S7:BRANCH_ROW:115,89,113,1,2500,23.3809861236689,23.9703966493967,0,0,6.96343257311435,-360,360,0,0,0,0,9.47482828415118e-14,0
116,NPCC_S7:BRANCH_ROW:116,90,114,1,176.592906,175.622173762294,176.592899466423,0,0,-1.85530706727467,-360,360,0,0,0,0,6.44267385893836e-13,0
117,NPCC_S7:BRANCH_ROW:117,91,92,1,2500,562.788200076441,564.271991861127,0,0,-25.0758550670928,-360,360,0,0,0,0,1.13686837721616e-13,0
118,NPCC_S7:BRANCH_ROW:118,91,93,1,2500,43.8564036279044,39.6903912798843,0,0,3.08597278868422,-360,360,0,0,0,0,8.36209487142968e-14,0
119,NPCC_S7:BRANCH_ROW:119,91,95,1,2500,116.779121836359,106.385615678782,0,0,-9.45036590158089,-360,360,0,0,0,0,0,0
120,NPCC_S7:BRANCH_ROW:120,91,98,1,789.941803,415.900804527991,416.997341218482,0,0,-17.1137231653886,-360,360,0,0,0,0,1.4210854715202e-14,0
121,NPCC_S7:BRANCH_ROW:121,91,110,1,2500,450.344221391898,430.844736171071,0,0,0.530289228341118,-360,360,0,0,0,0,2.15049254143502e-12,0
122,NPCC_S7:BRANCH_ROW:122,92,97,1,2500,233.147109593111,233.147071686115,0,0,3.34674836382597,-360,360,0,0,0,0,3.12033903970231e-14,0
123,NPCC_S7:BRANCH_ROW:123,93,94,1,2500,62.1227506172787,62.0717284520262,0,0,1.03233520991901,-360,360,0,0,0,0,1.43214466921978e-14,0
124,NPCC_S7:BRANCH_ROW:124,93,95,1,2500,166.530049345055,167.632395727845,0,0,-12.5363386902651,-360,360,0,0,0,0,2.26595186619278e-13,0
125,NPCC_S7:BRANCH_ROW:125,94,111,1,2500,34.0081710378386,34.1462935958353,0,0,-0.629406835345847,-360,360,0,0,0,0,7.90700806960754e-13,0
126,NPCC_S7:BRANCH_ROW:126,95,96,1,2500,159.707835117742,169.114648700895,0,0,-7.94262948268548,-360,360,0,0,0,0,7.105427357601e-15,0
127,NPCC_S7:BRANCH_ROW:127,96,97,1,2500,123.803572878887,128.677883084403,0,0,-4.33611131900045,-360,360,0,0,0,0,1.58882185807825e-14,0
128,NPCC_S7:BRANCH_ROW:128,98,99,1,2500,334.183153423848,331.663690750023,0,0,-1.3963844311706,-360,360,0,0,0,0,3.15724129836754e-12,0
129,NPCC_S7:BRANCH_ROW:129,99,100,1,2500,331.663690750023,318.120974230876,0,0,-11.1952851784026,-360,360,0,0,0,0,3.75177330125896e-13,0
130,NPCC_S7:BRANCH_ROW:130,101,104,1,2500,239.095441373829,229.32901422254,0,0,8.89779148441342,-360,360,0,0,0,0,4.94784738934689e-13,0
131,NPCC_S7:BRANCH_ROW:131,101,105,1,2500,96.8928773838002,85.9351437983616,0,0,3.02061392366588,-360,360,0,0,0,0,1.4210854715202e-14,0
132,NPCC_S7:BRANCH_ROW:132,101,107,1,2500,193.594241129508,186.423737819789,0,0,6.90054931943298,-360,360,0,0,0,0,5.17282919736354e-13,0
133,NPCC_S7:BRANCH_ROW:133,101,108,1,2500,224.723600786633,215.84737499536,0,0,8.3280157031365,-360,360,0,0,0,0,5.06034149758672e-13,0
134,NPCC_S7:BRANCH_ROW:134,101,109,1,2500,222.089699572462,213.308893863728,0,0,8.34749828434862,-360,360,0,0,0,0,4.0990372275064e-13,0
135,NPCC_S7:BRANCH_ROW:135,101,110,1,2500,71.4120372594788,68.985767718068,0,0,9.24972676552343,-360,360,0,0,0,0,1.02537496286898e-13,0
136,NPCC_S7:BRANCH_ROW:136,104,106,1,2500,92.4408751156976,91.5721132091462,0,0,-0.702124739902217,-360,360,0,0,0,0,1.4834526027998e-12,0
137,NPCC_S7:BRANCH_ROW:137,104,110,1,2500,164.789242461165,165.969860054213,0,0,0.351935281110016,-360,360,0,0,0,0,8.36951784153116e-12,0
138,NPCC_S7:BRANCH_ROW:138,105,106,1,2500,93.4738839827209,100.137842568625,0,0,5.17505282084532,-360,360,0,0,0,0,1.84877703635176e-13,0
139,NPCC_S7:BRANCH_ROW:139,105,107,1,2500,92.9804661707297,100.953537498325,0,0,3.87993539576711,-360,360,0,0,0,0,2.1316282072803e-13,0
140,NPCC_S7:BRANCH_ROW:140,105,111,1,2500,190.218362875168,192.106492353289,0,0,9.18772477677382,-360,360,0,0,0,0,1.70530256582424e-13,0
141,NPCC_S7:BRANCH_ROW:141,105,112,1,2500,130.525759724635,140.183178849516,0,0,-4.05968840156116,-360,360,0,0,0,0,5.50429899898981e-13,0
142,NPCC_S7:BRANCH_ROW:142,105,113,1,2500,4.29375483520953,4.11877445499046,0,0,1.4002839258267,-360,360,0,0,0,0,1.60118641699469e-14,0
143,NPCC_S7:BRANCH_ROW:143,107,110,1,2500,240.868649189794,241.634854306786,0,0,2.34917744609045,-360,360,0,0,0,0,2.79763513654672e-12,0
144,NPCC_S7:BRANCH_ROW:144,108,110,1,2500,95.2977874032865,95.8457389207481,0,0,0.921711062386933,-360,360,0,0,0,0,2.54187663847404e-12,0
145,NPCC_S7:BRANCH_ROW:145,108,111,1,2500,150.778041548109,143.915547701933,0,0,3.8803229973032,-360,360,0,0,0,0,5.94992042563783e-13,0
146,NPCC_S7:BRANCH_ROW:146,109,110,1,2500,93.5843552049226,94.1262559740273,0,0,0.902228481174816,-360,360,0,0,0,0,2.72152709015154e-12,0
147,NPCC_S7:BRANCH_ROW:147,109,111,1,2500,150.213599507347,143.38258612162,0,0,3.86084041609108,-360,360,0,0,0,0,6.62445360194776e-13,0
148,NPCC_S7:BRANCH_ROW:148,112,113,1,2500,96.2163742510199,94.683169576496,0,0,5.45997232738786,-360,360,0,0,0,0,2.57577125281355e-14,0
149,NPCC_S7:BRANCH_ROW:149,114,117,1,2500,17.3430405087977,18.2203947846432,0,0,-3.4299377904191,-360,360,0,0,0,0,4.35479232128389e-14,0
150,NPCC_S7:BRANCH_ROW:150,114,119,1,2500,7.61376612155848,7.57191392963655,0,0,1.39995909517673,-360,360,0,0,0,0,5.75673923574229e-14,0
151,NPCC_S7:BRANCH_ROW:151,114,121,1,2500,189.316561202838,209.846983668698,0,0,-8.22837592845868,-360,360,0,0,0,0,2.89845701990588e-13,0
152,NPCC_S7:BRANCH_ROW:152,115,116,1,2500,7.73598845265998,8.25894344647437,0,0,3.12484779166054,-360,360,0,0,0,0,1.81153563744118e-14,0
153,NPCC_S7:BRANCH_ROW:153,115,117,1,2500,240.270690401984,245.790210129105,0,0,1.24827921210637,-360,360,0,0,0,0,4.01943669423046e-14,0
154,NPCC_S7:BRANCH_ROW:154,115,118,1,2500,38.7343925103555,42.568838164386,0,0,1.29171069411079,-360,360,0,0,0,0,7.105427357601e-15,0
155,NPCC_S7:BRANCH_ROW:155,115,119,1,2500,239.417613813081,231.842726219053,0,0,6.0781760977022,-360,360,0,0,0,0,7.105427357601e-15,0
156,NPCC_S7:BRANCH_ROW:156,115,121,1,2500,29.4864313853974,31.8249389469674,0,0,-3.5501589259332,-360,360,0,0,0,0,7.66925479386874e-14,0
157,NPCC_S7:BRANCH_ROW:157,115,135,1,549.442667,164.957680226312,159.738595130706,0,0,-75.4629598211171,-360,360,0,0,0,0,1.4210854715202e-14,0
158,NPCC_S7:BRANCH_ROW:158,115,139,1,549.442667,549.442551049431,532.058774066688,0,0,-47.3324975122346,-360,360,0,0,0,0,2.8421709430404e-14,0
159,NPCC_S7:BRANCH_ROW:159,116,117,1,2500,19.4007779681972,18.5897800156039,0,0,-1.87656857955417,-360,360,0,0,0,0,8.53575967364432e-14,0
160,NPCC_S7:BRANCH_ROW:160,116,118,1,2500,57.2545002413917,58.9380817356175,0,0,-1.83313709754975,-360,360,0,0,0,0,1.89596449674331e-13,0
161,NPCC_S7:BRANCH_ROW:161,116,120,1,2500,37.6460785613605,41.7348181667281,0,0,-14.2761766190587,-360,360,0,0,0,0,2.17739616064194e-14,0
162,NPCC_S7:BRANCH_ROW:162,116,121,1,2500,24.7690144451586,25.0406392280167,0,0,-6.67500671759375,-360,360,0,0,0,0,7.105427357601e-15,0
163,NPCC_S7:BRANCH_ROW:163,116,122,1,2500,210.694824178743,233.577558409253,0,0,-13.8121888168717,-360,360,0,0,0,0,1.5371389603149e-13,0
164,NPCC_S7:BRANCH_ROW:164,117,118,1,2500,335.890604347191,360.852002077876,0,0,0.0434314820044222,-360,360,0,0,0,0,5.69543329542959e-14,0
165,NPCC_S7:BRANCH_ROW:165,117,119,1,2500,466.060896313719,441.180449103222,0,0,4.82989688559583,-360,360,0,0,0,0,5.6843418860808e-14,0
166,NPCC_S7:BRANCH_ROW:166,117,120,1,2500,316.889409398751,366.632872510404,0,0,-12.3996080395045,-360,360,0,0,0,0,5.6843418860808e-14,0
167,NPCC_S7:BRANCH_ROW:167,117,121,1,2500,104.677779940956,110.442462902897,0,0,-4.79843813803957,-360,360,0,0,0,0,2.85369390383369e-13,0
168,NPCC_S7:BRANCH_ROW:168,117,122,1,2500,255.896141762017,296.064189347566,0,0,-11.9356202373175,-360,360,0,0,0,0,4.01943669423046e-13,0
169,NPCC_S7:BRANCH_ROW:169,118,120,1,2500,393.058848637749,423.301678541552,0,0,-12.4430395215089,-360,360,0,0,0,0,6.35528743231302e-14,0
170,NPCC_S7:BRANCH_ROW:170,118,121,1,2500,17.8801509775448,17.5598781447214,0,0,-4.84186962004399,-360,360,0,0,0,0,5.20020690270842e-14,0
171,NPCC_S7:BRANCH_ROW:171,118,122,1,2500,46.4760642592762,50.0518601382652,0,0,-11.979051719322,-360,360,0,0,0,0,6.72688885561076e-14,0
172,NPCC_S7:BRANCH_ROW:172,118,123,1,2500,470.462233910609,506.660661929149,0,0,0.917963196363075,-360,360,0,0,0,0,5.6843418860808e-14,0
173,NPCC_S7:BRANCH_ROW:173,119,120,1,2500,88.3519737962244,107.985722938582,0,0,-17.2295049251003,-360,360,0,0,0,0,0,0
174,NPCC_S7:BRANCH_ROW:174,119,121,1,2500,28.344613267916,31.5921020164163,0,0,-9.6283350236354,-360,360,0,0,0,0,3.8958546965271e-14,0
175,NPCC_S7:BRANCH_ROW:175,121,122,1,2500,33.5740784111445,36.8166834078193,0,0,-7.13718209927796,-360,360,0,0,0,0,6.20454770106455e-14,0
176,NPCC_S7:BRANCH_ROW:176,122,135,1,549.442667,156.915623700245,128.385974102886,0,0,-64.7756187959059,-360,360,0,0,0,0,5.6843418860808e-14,0
177,NPCC_S7:BRANCH_ROW:177,122,139,1,549.442667,471.570809850931,385.832056028578,0,0,-36.6451564870234,-360,360,0,0,0,0,3.31451240915914e-13,0
178,NPCC_S7:BRANCH_ROW:178,124,125,1,2500,259.072454681283,256.477498853009,0,0,-9.01460194839863,-360,360,0,0,0,0,5.68711676634668e-14,0
179,NPCC_S7:BRANCH_ROW:179,124,126,1,2500,34.5046745966001,33.8724219237175,0,0,0.89389958601951,-360,360,0,0,0,0,9.82632051172013e-14,0
180,NPCC_S7:BRANCH_ROW:180,124,127,1,2500,60.6640238763484,58.5213591149596,0,0,0.203665773623305,-360,360,0,0,0,0,3.90216718464728e-13,0
181,NPCC_S7:BRANCH_ROW:181,124,128,1,2500,534.82514443487,531.753170502547,0,0,2.95947930322841,-360,360,0,0,0,0,5.72020001146107e-13,0
182,NPCC_S7:BRANCH_ROW:182,125,126,1,2500,495.86608416981,491.705073370458,0,0,9.90850153441814,-360,360,0,0,0,0,1.13686837721616e-13,0
183,NPCC_S7:BRANCH_ROW:183,125,128,1,2500,94.2389119925724,95.1089081516895,0,0,11.974081251627,-360,360,0,0,0,0,1.42731681407222e-14,0
184,NPCC_S7:BRANCH_ROW:184,126,127,1,2500,10.2355924753187,10.426568041347,0,0,-0.690233812396205,-360,360,0,0,0,0,2.4242552967657e-14,0
185,NPCC_S7:BRANCH_ROW:185,126,128,1,2500,17.1858220412209,17.4912544810463,0,0,2.0655797172089,-360,360,0,0,0,0,3.66205343881779e-15,0
186,NPCC_S7:BRANCH_ROW:186,126,138,1,2500,58.1560650198677,53.5511628198513,0,0,19.8459543867388,-360,360,0,0,0,0,1.35574551784801e-14,0
187,NPCC_S7:BRANCH_ROW:187,127,128,1,773.970762,43.3610746355663,43.3233757747747,0,0,2.7558135296051,-360,360,0,0,0,0,2.17515896857666e-14,0
188,NPCC_S7:BRANCH_ROW:188,127,132,1,2500,276.053038255074,403.802285843386,0,0,-2.42024367216588,-360,360,0,0,0,0,3.73829221813534e-13,0
189,NPCC_S7:BRANCH_ROW:189,128,129,1,773.970762,20.2860219426647,19.9731027676676,0,0,-1.00372253915172,-360,360,0,0,0,0,3.5527136788005e-15,0
190,NPCC_S7:BRANCH_ROW:190,128,130,1,773.970762,431.247366038583,471.255580337593,0,0,-3.63929332267976,-360,360,0,0,0,0,3.98917701648378e-13,0
191,NPCC_S7:BRANCH_ROW:191,129,130,1,2500,628.234490149875,634.97417659734,0,0,-2.63557078352804,-360,360,0,0,0,0,8.02001014763076e-13,0
192,NPCC_S7:BRANCH_ROW:192,130,131,1,2500,682.879678616031,706.599664446627,0,0,1.08012160630255,-360,360,0,0,0,0,1.51677159739465e-12,0
193,NPCC_S7:BRANCH_ROW:193,130,132,1,2500,212.069032645674,310.596988875979,0,0,-1.53676387909122,-360,360,0,0,0,0,1.53055589383215e-13,0
194,NPCC_S7:BRANCH_ROW:194,131,133,1,2500,771.512805759431,793.870432466566,0,0,-16.4086032587772,-360,360,0,0,0,0,4.54747350886464e-13,0
195,NPCC_S7:BRANCH_ROW:195,131,135,1,2500,340.04210429257,288.051492679192,0,0,-9.08604656164119,-360,360,0,0,0,0,8.03887338846093e-14,0
196,NPCC_S7:BRANCH_ROW:196,131,139,1,2500,365.042373334554,309.229354507231,0,0,19.0444157472414,-360,360,0,0,0,0,6.35528743231302e-14,0
197,NPCC_S7:BRANCH_ROW:197,132,133,1,2500,880.464959136636,872.989320352922,0,0,-13.7917177733835,-360,360,0,0,0,0,4.13826335789083e-13,0
198,NPCC_S7:BRANCH_ROW:198,132,134,1,2500,429.074631667799,425.260876473838,0,0,9.92864309975326,-360,360,0,0,0,0,5.6843418860808e-14,0
199,NPCC_S7:BRANCH_ROW:199,132,135,1,2500,567.076525534481,636.093978730003,0,0,-6.46916107624742,-360,360,0,0,0,0,1.2710574864626e-13,0
200,NPCC_S7:BRANCH_ROW:200,132,138,1,2500,100.887353648988,95.8648014772671,0,0,22.9564318713009,-360,360,0,0,0,0,4.32206272925713e-14,0
201,NPCC_S7:BRANCH_ROW:201,133,135,1,2500,1758.12263572777,1712.8139661281,0,0,7.32255669713605,-360,360,0,0,0,0,2.68129870507227e-12,0
202,NPCC_S7:BRANCH_ROW:202,134,135,1,2500,507.918344743828,441.198680037038,0,0,-16.3978041760007,-360,360,0,0,0,0,1.70530256582424e-13,0
203,NPCC_S7:BRANCH_ROW:203,134,136,1,2500,282.203215054909,277.60196311218,0,0,11.8046095147478,-360,360,0,0,0,0,1.81987736523094e-13,0
204,NPCC_S7:BRANCH_ROW:204,135,139,1,2500,575.346698277632,575.346697651126,0,0,28.1304623088826,-360,360,0,0,0,0,8.03887338846093e-14,0
205,NPCC_S7:BRANCH_ROW:205,136,139,1,2500,66.9790452901523,58.3466809999919,0,0,-0.0719513818659436,-360,360,0,0,0,0,9.43572010582692e-14,0
206,NPCC_S7:BRANCH_ROW:206,137,138,1,2500,15.6222055257093,14.107554663459,0,0,1.00810169648272,-360,360,0,0,0,0,2.51214793389404e-15,0
207,NPCC_S7:BRANCH_ROW:207,1,21,1,2500,1814.28264023416,2031.37006460245,0,0,-19.390069624202,-360,360,0,0,0,0,1.60777467769219e-12,0
208,NPCC_S7:BRANCH_ROW:208,3,2,1,2500,64.9947758091779,66.6264748627694,0,0,-1.04173492409796,-360,360,0,0,0,0,2.60586159880805e-13,0
209,NPCC_S7:BRANCH_ROW:209,3,4,1,2500,47.7112086287441,48.5457065312583,0,0,0.835416182217656,-360,360,0,0,0,0,8.64412545851425e-14,0
210,NPCC_S7:BRANCH_ROW:210,10,11,1,2500,602.383702143225,603.753315374063,0,0,4.19554881051557,-360,360,0,0,0,0,7.56386008457142e-13,0
211,NPCC_S7:BRANCH_ROW:211,10,22,1,2500,470.96124485453,486.248478137655,0,0,-2.77758140018298,-360,360,0,0,0,0,3.97903932025656e-13,0
212,NPCC_S7:BRANCH_ROW:212,11,23,1,2500,300.768387620995,309.826765152352,0,0,-2.07639602617891,-360,360,0,0,0,0,7.55183592422465e-13,0
213,NPCC_S7:BRANCH_ROW:213,13,24,1,2500,639.854551963189,660.164738761836,0,0,-4.17357527453657,-360,360,0,0,0,0,6.9153003668114e-13,0
214,NPCC_S7:BRANCH_ROW:214,14,25,1,2500,356.088111917561,368.495666484572,0,0,-4.41322467765632,-360,360,0,0,0,0,2.8421709430404e-14,0
215,NPCC_S7:BRANCH_ROW:215,16,27,1,2500,1523.16109079136,1608.12967250213,0,0,-17.9635317339849,-360,360,0,0,0,0,2.34371420084339e-13,0
216,NPCC_S7:BRANCH_ROW:216,20,26,1,2500,298.544465390061,303.382898330828,0,0,-2.06618330749426,-360,360,0,0,0,0,3.69482222595252e-13,0
217,NPCC_S7:BRANCH_ROW:217,28,29,1,2500,0,0,0,0,0,-360,360,0,0,0,0,0,0
218,NPCC_S7:BRANCH_ROW:218,33,36,1,2500,1643.1660920085,1857.8183433204,0,0,-22.4438886045769,-360,360,0,0,0,0,2.27373675443232e-13,0
219,NPCC_S7:BRANCH_ROW:219,40,41,1,2500,174.631782254978,176.41294551435,0,0,1.29379372177197,-360,360,0,0,0,0,1.4210854715202e-14,0
220,NPCC_S7:BRANCH_ROW:220,49,48,1,2500,191.132263495887,209.757998962989,0,0,-15.1991322517001,-360,360,0,0,0,0,1.91187496725912e-13,0
221,NPCC_S7:BRANCH_ROW:221,48,100,1,2500,334.18315368072,318.120974230876,0,0,25.9358774006282,-360,360,0,0,0,0,2.0495186137532e-13,0
222,NPCC_S7:BRANCH_ROW:222,54,52,1,4583.01611665388,1560.96830906374,1438.04715046855,0,0,-17.4521666783462,-360,360,0,0,0,0,1.13828857561775e-12,0
223,NPCC_S7:BRANCH_ROW:223,54,55,1,2500,868.713490377303,868.713449664854,0,0,5.3495216434216,-360,360,0,0,0,0,1.13908665908592e-13,0
224,NPCC_S7:BRANCH_ROW:224,56,57,1,2500,103.121032049202,104.159666156709,0,0,7.17893422051682,-360,360,0,0,0,0,1.42264586596864e-14,0
225,NPCC_S7:BRANCH_ROW:225,58,59,1,2500,735.791606785598,730.850044466228,0,0,3.54591250599574,-360,360,0,0,0,0,1.14571573537582e-13,0
226,NPCC_S7:BRANCH_ROW:226,60,61,1,2500,151.043129293599,144.955643679679,0,0,4.04898511950719,-360,360,0,0,0,0,5.63079901103235e-13,0
227,NPCC_S7:BRANCH_ROW:227,75,76,1,2500,716.513441649952,714.602820898869,0,0,-2.50981858086762,-360,360,0,0,0,0,1.14571573537582e-13,0
228,NPCC_S7:BRANCH_ROW:228,84,83,1,2500,131.455473375762,129.657643914453,0,0,1.33146867274205,-360,360,0,0,0,0,1.23366671642903e-12,0
229,NPCC_S7:BRANCH_ROW:229,85,86,1,2500,753.092300636803,750.632419305022,0,0,-2.8419058417867,-360,360,0,0,0,0,4.00214102622625e-12,0
230,NPCC_S7:BRANCH_ROW:230,87,85,1,2500,176.552067887287,176.715001358366,0,0,2.8805167178121,-360,360,0,0,0,0,8.52583857327095e-13,0
231,NPCC_S7:BRANCH_ROW:231,101,102,1,2500,242.745093389567,243.772407753518,0,0,-2.47037450685212,-360,360,0,0,0,0,2.8421709430404e-14,0
232,NPCC_S7:BRANCH_ROW:232,101,103,1,2500,279.157536921557,280.107468323197,0,0,-2.03481119169906,-360,360,0,0,0,0,5.69543329542959e-14,0
233,NPCC_S7:BRANCH_ROW:233,137,136,1,2500,308.03480028412,289.315981713375,0,0,-0.215077560317056,-360,360,0,0,0,0,8.56065783399091e-13,0
234,NPCC_S7:BRANCH_ROW:234,38,39,1,1216,364.0293832357,366.334449408196,0,0,-3.7539330811432,-360,360,0,0,0,0,7.105427357601e-15,0
235,NPCC_S7:BRANCH_ROW:235,73,9002,0,2432,0,0,0,0,-0.882650500922606,-360,360,0,0,0,0,0,0
236,NPCC_S7:BRANCH_ROW:236,9002,74,0,2432,0,0,0,0,-0.796365410921953,-360,360,0,0,0,0,0,0
237,NPCC_S7:BRANCH_ROW:237,74,78,1,866.851485148515,130.250524405434,130.79228694865,0,0,-0.90573512605657,-360,360,0,0,0,0,2.86428933843956e-14,0
238,NPCC_S7:BRANCH_ROW:238,77,78,1,650.138613861386,152.831443324816,153.098289928078,0,0,-1.45636485731907,-360,360,0,0,0,0,2.84251786656236e-14,0
239,NPCC_S7:BRANCH_ROW:239,78,81,1,1158.78216075726,201.333338857135,199.865768697336,0,0,1.07627745066699,-360,360,0,0,0,0,8.55606755492907e-14,0
240,NPCC_S7:BRANCH_ROW:240,78,79,1,1390.53859290871,913.19384191516,915.069517349169,0,0,-4.34472497639974,-360,360,0,0,0,0,1.4210854715202e-14,0
241,NPCC_S7:BRANCH_ROW:241,78,82,1,1390.53859290871,863.186930537051,864.959891065561,0,0,-4.10652158996357,-360,360,0,0,0,0,1.1377354083341e-13,0
242,NPCC_S7:BRANCH_ROW:242,78,9003,1,2865.3452685422,353.731722655955,354.156595824916,0,0,-3.36755809033342,-360,360,0,0,0,0,3.5527136788005e-15,0
243,NPCC_S7:BRANCH_ROW:243,9003,80,1,5000,124.230373548887,124.336194872817,0,0,-1.17914263679317,-360,360,0,0,0,0,1.46482137552712e-14,0
244,NPCC_S7:BRANCH_ROW:244,81,80,1,2950,391.22068818081,394.902785314662,0,0,-5.62297817779358,-360,360,0,0,0,0,5.85928550210846e-14,0
245,NPCC_S7:BRANCH_ROW:245,39,9001,1,5000,189.536545433451,191.01228993081,0,0,-3.36632753213365,-360,360,0,0,0,0,2.8421709430404e-14,0
246,NPCC_S7:BRANCH_ROW:246,9001,73,1,5000,191.01228993081,192.464244673175,0,0,-2.36725428031438,-360,360,0,0,0,0,3.5527136788005e-15,0
247,PERFORM2019:AC:651:858:1,73,858,1,1216,185.031811271846,177.209296888455,0,0,-0.375528631599467,-360,360,0,0,0,0,1.99458850824189e-13,0
248,PERFORM2019:AC:651:858:2,73,858,1,1216,185.032145875146,177.208990828221,0,0,-0.375528631599467,-360,360,0,0,0,0,1.99458850824189e-13,0
249,PERFORM2019:AC:651:902:1,73,9002,1,1216,185.361114645597,168.124273905605,0,0,-0.882650500922606,-360,360,0,0,0,0,1.13686837721616e-13,0
250,PERFORM2019:AC:651:902:2,73,9002,1,1216,185.361449363228,168.124015639502,0,0,-0.882650500922606,-360,360,0,0,0,0,8.5265128291212e-14,0
251,PERFORM2019:AC:858:902:1,858,9002,1,1216,177.20944991909,167.767488903371,0,0,-0.507121869323139,-360,360,0,0,0,0,0,0
252,PERFORM2019:AC:858:902:2,858,9002,1,1216,177.208837798623,167.768004274837,0,0,-0.507121869323139,-360,360,0,0,0,0,5.6843418860808e-14,0
253,PERFORM2019:AC:897:902:1,9002,74,1,1216,335.894807587913,331.12884548717,0,0,-0.796365410921953,-360,360,0,0,0,0,5.6843418860808e-14,0
254,PERFORM2019:AC:897:902:2,9002,74,1,1216,335.888874133827,331.134459796903,0,0,-0.796365410921953,-360,360,0,0,0,0,2.8421709430404e-14,0
255,PERFORM2019:AC:774:1519:1,76,774,1,1216,208.837059923727,209.721335681606,0,0,-0.275313793478179,-360,360,0,0,0,0,3.69908984989573e-13,0
256,PERFORM2019:AC:774:900:1,774,77,1,1725,209.721335681608,212.225984616198,0,0,-0.542358477469663,-360,360,0,0,0,0,2.27484670653867e-13,0
257,PERFORM2019:AC:900:1519:1,76,77,1,1725,206.984659543279,210.420597382468,0,0,-0.817672270947842,-360,360,0,0,0,0,2.92964275105423e-14,0
